OPT_V9/My_campus_w_initial_sub_3_active_25_03_11_44/powerflow_results_t14.txt
Pandapower Network Debug Info
==================================================

BUS:
       vm_pu  va_degree      p_mw    q_mvar
0   1.006435   0.230859 -0.004062 -0.001377
1   1.009661   0.374251 -0.004344  0.000000
2   1.010707   0.420547 -0.001169  0.000000
3   1.008600   0.327047 -0.003273  0.000000
4   1.003415   0.191528 -0.002125  0.000402
5   1.005450   0.212639 -0.002652  0.000181
6   1.009420   0.337719 -0.004098 -0.000651
7   1.002276   0.076076 -0.003063 -0.000437
8   1.001222   0.048635 -0.004729 -0.000876
9   0.999976   0.000928  0.002025  0.005251
10  0.999971   0.000932  0.005314  0.002889
11  0.999967   0.000972  0.003888  0.004464
12  0.999981   0.000637  0.004569 -0.000184
13  0.999973   0.000577  0.007278  0.003344
14  0.999968   0.000524  0.006442  0.003097
15  0.999992   0.000758  0.000000  0.000000
16  0.999992   0.000757  0.000000  0.000000
17  0.999983   0.000711  0.000000  0.000000
18  0.999983   0.000710  0.000000  0.000000
19  1.000000   0.000000  0.001499 -0.016308
20  1.000000   0.000002  0.000000  0.000000
21  1.000000   0.000000 -0.001712 -0.009932
22  1.000000   0.000001  0.000000  0.000000
--------------------------------------------------

LINE:
    p_from_mw   q_from_mvar   p_to_mw     q_to_mvar         pl_mw       ql_mvar  i_from_ka   i_to_ka      i_ka  vm_from_pu  va_from_degree  vm_to_pu  va_to_degree  loading_percent
0   -0.001509  1.230759e-02  0.001509 -1.230748e-02  1.503920e-07  1.172631e-07   0.000477  0.000477  0.000477    1.000000        0.000002  0.999992      0.000758         0.207507
1    0.001702  5.931987e-03 -0.001702 -5.931908e-03  1.024466e-07  7.987929e-08   0.000238  0.000238  0.000238    1.000000        0.000001  0.999983      0.000711         0.103277
2    0.011227  1.260422e-02 -0.011227 -1.260404e-02  2.203169e-07  1.717847e-07   0.000650  0.000650  0.000650    0.999992        0.000758  0.999976      0.000928         0.282472
3    0.004569 -1.843057e-04 -0.004569  1.843114e-04  7.231721e-09  5.638692e-09   0.000176  0.000176  0.000176    0.999983        0.000711  0.999981      0.000637         0.076527
4    0.013720  6.441699e-03 -0.013720 -6.441601e-03  1.256219e-07  9.794949e-08   0.000583  0.000583  0.000583    0.999983        0.000711  0.999973      0.000577         0.253654
5   -0.012746 -1.296675e-03  0.012823  1.356537e-03  7.677342e-05  5.986150e-05   0.018492  0.018492  0.018492    0.999992        0.000757  1.006435      0.230859         8.040142
6   -0.006701 -4.311779e-04  0.006736  4.584528e-04  3.498056e-05  2.727492e-05   0.009692  0.009692  0.009692    0.999983        0.000710  1.005450      0.212639         4.213909
7   -0.003056 -4.315603e-04  0.003063  4.365788e-04  6.436230e-06  5.018435e-06   0.004455  0.004455  0.004455    0.999983        0.000710  1.002276      0.076076         1.936958
8   -0.006840 -4.626637e-04  0.006848  4.689649e-04  8.081415e-06  6.301213e-06   0.009896  0.009896  0.009896    0.999983        0.000710  1.001222      0.048635         4.302392
9   -0.009202 -7.353269e-03  0.009202  7.353307e-03  4.798258e-08  3.741281e-08   0.000453  0.000453  0.000453    0.999971        0.000932  0.999976      0.000928         0.197122
10  -0.003888 -4.464125e-03  0.003888  4.464138e-03  1.714070e-08  1.336489e-08   0.000228  0.000228  0.000228    0.999967        0.000972  0.999971      0.000932         0.099072
11  -0.006442 -3.097154e-03  0.006442  3.097174e-03  2.498716e-08  1.948290e-08   0.000275  0.000275  0.000275    0.999968        0.000524  0.999973      0.000577         0.119618
12   0.005512 -9.412298e-07 -0.005494  1.468787e-05  1.763030e-05  1.374664e-05   0.007879  0.007879  0.007879    1.009661        0.374251  1.006435      0.230859         3.425770
13   0.003273  1.034148e-09 -0.003266  5.482439e-06  7.032650e-06  5.483473e-06   0.004684  0.004684  0.004684    1.008600        0.327047  1.006435      0.230859         2.036692
14   0.001169  6.286573e-10 -0.001168  9.430229e-07  1.210250e-06  9.436515e-07   0.001670  0.001670  0.001670    1.010707        0.420547  1.009661      0.374251         0.725876
15  -0.002119  4.068317e-04  0.002125 -4.024248e-04  5.651925e-06  4.406899e-06   0.003111  0.003111  0.003111    1.001222        0.048635  1.003415      0.191528         1.352534
16   0.004098  6.507748e-04 -0.004084 -6.393016e-04  1.471459e-05  1.147321e-05   0.005934  0.005934  0.005934    1.009420        0.337719  1.005450      0.212639         2.579948
--------------------------------------------------

TRAFO:
    p_hv_mw  q_hv_mvar   p_lv_mw  q_lv_mvar    pl_mw  ql_mvar   i_hv_ka   i_lv_ka  vm_hv_pu  va_hv_degree  vm_lv_pu  va_lv_degree  loading_percent
0 -0.012736  -0.000297  0.012746   0.001297  0.00001    0.001  0.000490  0.018492  0.999992      0.000758  0.999992      0.000757         0.128119
1 -0.016587  -0.000325  0.016597   0.001325  0.00001    0.001  0.000639  0.024032  0.999983      0.000711  0.999983      0.000710         0.166502
2 -0.001499   0.016308  0.001509  -0.012308  0.00001    0.004  0.000135  0.000477  1.000000      0.000000  1.000000      0.000002         0.040941
3  0.001712   0.009932 -0.001702  -0.005932  0.00001    0.004  0.000083  0.000238  1.000000      0.000000  1.000000      0.000001         0.025196
--------------------------------------------------
